Version 4.1
SHEET 1 1628 1140
WIRE -880 512 -992 512
WIRE -992 544 -992 512
WIRE -880 544 -880 512
WIRE -992 656 -992 624
WIRE -880 656 -880 624
WIRE -224 704 -272 704
WIRE -144 704 -224 704
WIRE -32 704 -64 704
WIRE 432 704 336 704
WIRE 672 704 512 704
WIRE 672 720 672 704
WIRE -32 752 -32 704
WIRE 336 752 336 704
WIRE -272 768 -272 704
WIRE 672 848 672 800
WIRE -32 864 -32 832
WIRE -272 880 -272 848
WIRE 336 880 336 832
WIRE 672 976 672 928
WIRE -32 1008 -32 944
WIRE -32 1120 -32 1072
FLAG -992 656 0
FLAG -880 656 0
FLAG 336 880 0
FLAG -272 880 0
FLAG -224 704 vin_tran
FLAG -32 1120 0
FLAG 672 976 0
SYMBOL bi -992 624 R180
WINDOW 0 24 80 Left 2
WINDOW 3 24 0 Left 2
SYMATTR InstName B1
SYMATTR Value I=I(L6)*Np/Ns + I(L7)/Ns
SYMBOL voltage -880 528 R0
WINDOW 123 0 0 Left 0
WINDOW 39 0 0 Left 0
SYMATTR InstName V_I_mag
SYMATTR Value 0
SYMBOL ind -48 736 R0
SYMATTR InstName L6
SYMATTR Value {Np*Np*Al}
SYMBOL ind 352 848 R180
WINDOW 0 36 80 Left 2
WINDOW 3 36 40 Left 2
SYMATTR InstName L7
SYMATTR Value {Ns*Ns*Al}
SYMBOL res -160 720 R270
WINDOW 0 32 56 VTop 2
WINDOW 3 0 56 VBottom 2
SYMATTR InstName R3
SYMATTR Value 20m
SYMBOL voltage -272 752 R0
WINDOW 123 -460 217 Left 2
WINDOW 39 0 0 Left 0
WINDOW 3 -460 189 Left 2
SYMATTR Value2 AC 1
SYMATTR Value PULSE({-Vin} {Vin} 1u 100n 100n {1/(2*Fsw)} {1/Fsw})
SYMATTR InstName V3
SYMBOL res 656 832 R0
SYMATTR InstName Rl
SYMATTR Value {Rl}
SYMBOL ind 416 720 R270
WINDOW 0 32 56 VTop 2
WINDOW 3 5 56 VBottom 2
SYMATTR InstName L8
SYMATTR Value {L_sec_lkg}
SYMBOL ind 656 704 R0
SYMATTR InstName L9
SYMATTR Value {L_sec}
SYMBOL cap -48 1008 R0
SYMATTR InstName C3
SYMATTR Value {Cr_pri}
SYMBOL ind -48 848 R0
SYMATTR InstName L10
SYMATTR Value {0.1*Np*Np*Al}
TEXT -8 432 Left 2 !.tran 0 30m 29m
TEXT 1000 656 Left 2 !.param Vin=48, Fsw=11.4k\n.param Np=20, Ns=1\n.param Al=5u, Rl=20m, Cr_sec=10u, Cr_pri=0.22u\n.param L_sec_lkg=0.5u, L_sec=2u
TEXT 1008 776 Left 2 !;step dec param Rl 1m 100m 5\n;step dec param L_sec 0.1u 1u 5\n;step dec param Al 1u 20u 4\n;step param Fsw 4.0k 5.0k 100
TEXT -8 464 Left 2 ;.ac dec 1k 1k 100k
TEXT -1008 448 Left 2 ;I mag primary
TEXT 200 640 Left 2 !K2 L6 L7 0.99
TEXT 976 592 Left 2 ;want to operate just above resonance for ZVS
