Version 4.1
SHEET 1 1596 680
WIRE -16 80 -64 80
WIRE 64 80 -16 80
WIRE 176 80 144 80
WIRE 432 80 336 80
WIRE 672 80 512 80
WIRE 672 96 672 80
WIRE 176 128 176 80
WIRE 336 128 336 80
WIRE -64 144 -64 80
WIRE 672 224 672 176
WIRE -64 256 -64 224
WIRE 176 256 176 208
WIRE 336 256 336 208
WIRE 672 352 672 304
WIRE 288 400 176 400
WIRE 176 432 176 400
WIRE 288 432 288 400
WIRE 176 544 176 512
WIRE 288 544 288 512
FLAG 176 256 0
FLAG 336 256 0
FLAG -64 256 0
FLAG -16 80 vin
FLAG 672 352 0
FLAG 176 544 0
FLAG 288 544 0
SYMBOL ind 160 112 R0
SYMATTR InstName L1
SYMATTR Value {Np*Np*Al}
SYMATTR Type ind
SYMBOL ind 352 224 R180
WINDOW 0 36 80 Left 2
WINDOW 3 36 40 Left 2
SYMATTR InstName L2
SYMATTR Value {Al}
SYMATTR Type ind
SYMBOL res 48 96 R270
WINDOW 0 32 56 VTop 2
WINDOW 3 0 56 VBottom 2
SYMATTR InstName R1
SYMATTR Value 20m
SYMBOL voltage -64 128 R0
WINDOW 123 0 0 Left 0
WINDOW 39 0 0 Left 0
SYMATTR InstName V1
SYMATTR Value SINE(0 12 2000)
SYMBOL res 656 208 R0
SYMATTR InstName R2
SYMATTR Value {Rl}
SYMBOL bi 176 512 R180
WINDOW 0 24 80 Left 2
WINDOW 3 24 0 Left 2
SYMATTR InstName B1
SYMATTR Value I=I(L1) + I(L2)/Np
SYMBOL voltage 288 416 R0
WINDOW 123 0 0 Left 0
WINDOW 39 0 0 Left 0
SYMATTR InstName V2
SYMATTR Value 0
SYMBOL ind 416 96 R270
WINDOW 0 32 56 VTop 2
WINDOW 3 5 56 VBottom 2
SYMATTR InstName L3
SYMATTR Value {L_sec_lkg}
SYMBOL ind 656 80 R0
SYMATTR InstName L4
SYMATTR Value {L_sec}
TEXT 200 16 Left 2 !K1 L1 L2 0.99
TEXT -32 -88 Left 2 !.tran 0 100m 90m
TEXT 1056 8 Left 2 !.param Al=8u, Np=20, Rl=2m\n.param L_sec_lkg=0.5u, L_sec=2.6u
TEXT 1064 64 Left 2 !;step dec param Rl 1m 100m 5
